Program Version,EnergyPlus-Linux-64 8.1.0.009, YMD=2015.08.24 17:15
! <Version>, Version ID
 Version, 8.1
! <Timesteps per Hour>, #TimeSteps, Minutes per TimeStep {minutes}
 Timesteps per Hour, 12,  5
! <System Convergence Limits>, Minimum System TimeStep {minutes}, Max HVAC Iterations,  Minimum Plant Iterations, Maximum Plant Iterations
 System Convergence Limits, 2, 25, 2, 8
! <Simulation Control>, Do Zone Sizing, Do System Sizing, Do Plant Sizing, Do Design Days, Do Weather Simulation
 Simulation Control, Yes, Yes, Yes, No, Yes
! <Output Reporting Tolerances>, Tolerance for Time Heating Setpoint Not Met, Tolerance for Zone Cooling Setpoint Not Met Time
 Output Reporting Tolerances, 0.556, 0.556, 
! <Site:GroundTemperature:BuildingSurface>, Months From Jan to Dec {C}
 Site:GroundTemperature:BuildingSurface,  19.53,  19.50,  19.54,  19.60,  20.00,  21.64,  22.23,  22.38,  21.45,  20.12,  19.80,  19.63
! <Site:GroundTemperature:FCfactorMethod>, Months From Jan to Dec {C}
 Site:GroundTemperature:FCfactorMethod,  -1.89,  -3.06,  -0.99,   2.23,  10.68,  17.20,  21.60,  22.94,  20.66,  15.60,   8.83,   2.56
! <Site:GroundTemperature:Shallow>, Months From Jan to Dec {C}
 Site:GroundTemperature:Shallow,  13.00,  13.00,  13.00,  13.00,  13.00,  13.00,  13.00,  13.00,  13.00,  13.00,  13.00,  13.00
! <Site:GroundTemperature:Deep>, Months From Jan to Dec {C}
 Site:GroundTemperature:Deep,  16.00,  16.00,  16.00,  16.00,  16.00,  16.00,  16.00,  16.00,  16.00,  16.00,  16.00,  16.00
! <Site:GroundReflectance>, Months From Jan to Dec {dimensionless}
 Site:GroundReflectance,  0.20,  0.20,  0.20,  0.20,  0.20,  0.20,  0.20,  0.20,  0.20,  0.20,  0.20,  0.20
! <Site:GroundReflectance:SnowModifier>, Normal, Daylighting {dimensionless}
 Site:GroundReflectance:SnowModifier,   1.000,   1.000
! <Site:GroundReflectance:Snow>, Months From Jan to Dec {dimensionless}
 Site:GroundReflectance:Snow,  0.20,  0.20,  0.20,  0.20,  0.20,  0.20,  0.20,  0.20,  0.20,  0.20,  0.20,  0.20
! <Site:GroundReflectance:Snow:Daylighting>, Months From Jan to Dec {dimensionless}
 Site:GroundReflectance:Snow:Daylighting,  0.20,  0.20,  0.20,  0.20,  0.20,  0.20,  0.20,  0.20,  0.20,  0.20,  0.20,  0.20
! <Environment:Weather Station>,Wind Sensor Height Above Ground {m},Wind Speed Profile Exponent {},Wind Speed Profile Boundary Layer Thickness {m},Air Temperature Sensor Height Above Ground {m},Wind Speed Modifier Coefficient [Internal],Temperature Modifier Coefficient [Internal]
Environment:Weather Station,10.000,0.140,270.000,1.500,1.586,9.750E-003
! <Site:Location>, Location Name, Latitude {N+/S- Deg}, Longitude {E+/W- Deg},  Time Zone Number {GMT+/-}, Elevation {m},  Standard Pressure at Elevation {Pa}, Standard RhoAir at Elevation
Site:Location,Chicago Ohare Intl Ap IL USA TMY3 WMO#=725300,41.98,-87.92,-6.00,201.00,98934,1.1759
! <Building Information>, Building Name,North Axis {deg},Terrain,  Loads Convergence Tolerance Value,Temperature Convergence Tolerance Value,  Solar Distribution,Maximum Number of Warmup Days,Minimum Number of Warmup Days
 Building Information,Ref Bldg Stand-alone Retail New2004_v1.3_5.0,0.000,City,4.00000E-002,0.20000,FullInteriorAndExterior,25,6
! <Inside Convection Algorithm>, Algorithm {Simple | TARP | CeilingDiffuser | AdaptiveConvectionAlgorithm}
Inside Convection Algorithm,TARP
! <Outside Convection Algorithm>, Algorithm {SimpleCombined | TARP | MoWitt | DOE-2 | AdaptiveConvectionAlgorithm}
Outside Convection Algorithm,DOE-2
! <Sky Radiance Distribution>, Value {Anisotropic}
Sky Radiance Distribution,Anisotropic
! <Zone Air Solution Algorithm>, Value {ThirdOrderBackwardDifference | AnalyticalSolution | EulerMethod}
 Zone Air Solution Algorithm, AnalyticalSolution
! <Zone Air Contaminant Balance Simulation>, Simulation {Yes/No}, Carbon Dioxide Concentration
 Zone Air Carbon Dioxide Balance Simulation, No,N/A
! <Zone Air Contaminant Balance Simulation>, Simulation {Yes/No}, Generic Contaminant Concentration
 Zone Air Generic Contaminant Balance Simulation, No,N/A
! <Environment:Site Atmospheric Variation>,Wind Speed Profile Exponent {},Wind Speed Profile Boundary Layer Thickness {m},Air Temperature Gradient Coefficient {K/m}
Environment:Site Atmospheric Variation,0.330,460.000,6.500000E-003
! <SurfaceGeometry>,Starting Corner,Vertex Input Direction,Coordinate System,Daylight Reference Point Coordinate System,Rectangular (Simple) Surface Coordinate System
 Surface Geometry,UpperLeftCorner,Counterclockwise,RelativeCoordinateSystem,RelativeCoordinateSystem,RelativeToZoneOrigin
! <Surface Heat Transfer Algorithm>, Value {CTF - ConductionTransferFunction | EMPD - MoisturePenetrationDepthConductionTransferFunction | CondFD - ConductionFiniteDifference | HAMT - CombinedHeatAndMoistureFiniteElement} - Description,Inside Surface Max Temperature Limit{C}, Surface Convection Coefficient Lower Limit {W/m2-K}, Surface Convection Coefficient Upper Limit {W/m2-K}
Surface Heat Transfer Algorithm, CTF - ConductionTransferFunction,200,0.10,1000.0
! <Shading Summary>, Number of Fixed Detached Shades, Number of Building Detached Shades, Number of Attached Shades
 Shading Summary,0,0,0
! <Zone Summary>, Number of Zones, Number of Zone Surfaces, Number of SubSurfaces
 Zone Summary,5,44,3
! <Zone Information>,Zone Name,North Axis {deg},Origin X-Coordinate {m},Origin Y-Coordinate {m},Origin Z-Coordinate {m},Centroid X-Coordinate {m},Centroid Y-Coordinate {m},Centroid Z-Coordinate {m},Type,Zone Multiplier,Zone List Multiplier,Minimum X {m},Maximum X {m},Minimum Y {m},Maximum Y {m},Minimum Z {m},Maximum Z {m},Ceiling Height {m},Volume {m3},Zone Inside Convection Algorithm {Simple-Detailed-CeilingDiffuser-TrombeWall},Zone Outside Convection Algorithm {Simple-Detailed-Tarp-MoWitt-DOE-2-BLAST}, Floor Area {m2},Exterior Gross Wall Area {m2},Exterior Net Wall Area {m2},Exterior Window Area {m2}, Number of Surfaces, Number of SubSurfaces, Number of Shading SubSurfaces,  Part of Total Building Area
 Zone Information, BACK_SPACE,0.0,0.00,35.27,0.00,27.14,38.77,3.05,1,1,1,0.00,54.27,35.27,42.27,0.00,6.10,6.10,2315.81,TARP,DOE-2,379.89,416.17,416.17,0.00,6,0,0,Yes
 Zone Information, CORE_RETAIL,0.0,0.00,6.00,0.00,27.14,14.41,3.05,1,1,1,0.00,54.27,3.00,35.27,0.00,6.10,6.10,9756.54,TARP,DOE-2,1600.48,356.86,356.86,0.00,10,0,0,Yes
 Zone Information, FRONT_ENTRY,0.0,25.14,0.00,0.00,27.14,1.50,3.05,1,1,1,25.14,29.14,0.00,3.00,0.00,6.10,6.10,73.15,TARP,DOE-2,12.00,24.38,16.55,7.83,6,1,0,Yes
 Zone Information, FRONT_RETAIL,0.0,29.14,0.00,0.00,41.70,3.00,3.05,1,1,1,29.14,54.27,0.00,6.00,0.00,6.10,6.10,919.34,TARP,DOE-2,150.81,189.80,151.75,38.05,7,1,0,Yes
 Zone Information, POINT_OF_SALE,0.0,0.00,0.00,0.00,12.57,3.00,3.05,1,1,1,0.00,25.14,0.00,6.00,0.00,6.10,6.10,919.34,TARP,DOE-2,150.81,189.80,151.75,38.05,7,1,0,Yes
! <Zone Internal Gains/Equipment Information - Nominal>,Zone Name, Floor Area {m2},# Occupants,Area per Occupant {m2/person},Occupant per Area {person/m2},Interior Lighting {W/m2},Electric Load {W/m2},Gas Load {W/m2},Other Load {W/m2},Hot Water Eq {W/m2},Steam Equipment {W/m2},Sum Loads per Area {W/m2},Outdoor Controlled Baseboard Heat
 Zone Internal Gains, BACK_SPACE,379.89,13.6,27.870,3.588E-002,8.610,8.070,0.000,0.000,0.000,0.000,16.680,No
 Zone Internal Gains, CORE_RETAIL,1600.48,258.6,6.190,0.162,18.290,3.230,0.000,0.000,0.000,0.000,21.520,No
 Zone Internal Gains, FRONT_ENTRY,12.00,1.9,6.190,0.162,11.840,0.000,0.000,0.000,0.000,0.000,11.840,No
 Zone Internal Gains, FRONT_RETAIL,150.81,24.4,6.190,0.162,18.290,3.230,0.000,0.000,0.000,0.000,21.520,No
 Zone Internal Gains, POINT_OF_SALE,150.81,24.4,6.190,0.162,18.290,21.520,0.000,66.309,0.000,0.000,106.119,No
! <People Internal Gains - Nominal>,Name,Schedule Name,Zone Name,Zone Floor Area {m2},# Zone Occupants,Number of People {},People/Floor Area {person/m2},Floor Area per person {m2/person},Fraction Radiant,Fraction Convected,Sensible Fraction Calculation,Activity level,ASHRAE 55 Warnings,Carbon Dioxide Generation Rate,Nominal Minimum Number of People,Nominal Maximum Number of People,MRT Calculation Type,Work Efficiency, Clothing Insulation Calculation Method,Clothing Insulation Calculation Method Schedule,Clothing,Air Velocity,Fanger Calculation,Pierce Calculation,KSU Calculation
 People Internal Gains, BACK_SPACE PEOPLE,BLDG_OCC_SCH,BACK_SPACE,379.89,13.6,13.6,3.588E-002,27.870,0.300,0.700,AutoCalculate,ACTIVITY_SCH,No,3.8200E-008,0,14,Zone Averaged,WORK_EFF_SCH,Clothing Insulation Schedule,N/A,CLOTHING_SCH,AIR_VELO_SCH,Yes,No,No
 People Internal Gains, CORE_RETAIL PEOPLE,BLDG_OCC_SCH,CORE_RETAIL,1600.48,258.6,258.6,0.162,6.190,0.300,0.700,AutoCalculate,ACTIVITY_SCH,No,3.8200E-008,0,259,Zone Averaged,WORK_EFF_SCH,Clothing Insulation Schedule,N/A,CLOTHING_SCH,AIR_VELO_SCH,Yes,No,No
 People Internal Gains, FRONT_ENTRY PEOPLE,BLDG_OCC_SCH,FRONT_ENTRY,12.00,1.9,1.9,0.162,6.190,0.300,0.700,AutoCalculate,ACTIVITY_SCH,No,3.8200E-008,0,2,Zone Averaged,WORK_EFF_SCH,Clothing Insulation Schedule,N/A,CLOTHING_SCH,AIR_VELO_SCH,Yes,No,No
 People Internal Gains, FRONT_RETAIL PEOPLE,BLDG_OCC_SCH,FRONT_RETAIL,150.81,24.4,24.4,0.162,6.190,0.300,0.700,AutoCalculate,ACTIVITY_SCH,No,3.8200E-008,0,24,Zone Averaged,WORK_EFF_SCH,Clothing Insulation Schedule,N/A,CLOTHING_SCH,AIR_VELO_SCH,Yes,No,No
 People Internal Gains, POINT_OF_SALE PEOPLE,BLDG_OCC_SCH,POINT_OF_SALE,150.81,24.4,24.4,0.162,6.190,0.300,0.700,AutoCalculate,ACTIVITY_SCH,No,3.8200E-008,0,24,Zone Averaged,WORK_EFF_SCH,Clothing Insulation Schedule,N/A,CLOTHING_SCH,AIR_VELO_SCH,Yes,No,No
! <Lights Internal Gains - Nominal>,Name,Schedule Name,Zone Name,Zone Floor Area {m2},# Zone Occupants,Lighting Level {W},Lights/Floor Area {W/m2},Lights per person {W/person},Fraction Return Air,Fraction Radiant,Fraction Short Wave,Fraction Convected,Fraction Replaceable,End-Use Category,Nominal Minimum Lighting Level {W},Nominal Maximum Lighting Level {W}
 Lights Internal Gains, BACK_SPACE_LIGHTS,BLDG_LIGHT_SCH,BACK_SPACE,379.89,13.6,3270.853,8.610,239.961,0.000,0.700,0.200,0.100,1.000,General,0.000,3270.853
 Lights Internal Gains, CORE_RETAIL_LIGHTS,BLDG_LIGHT_SCH,CORE_RETAIL,1600.48,258.6,29272.832,18.290,113.215,0.000,0.700,0.200,0.100,1.000,General,0.000,29272.832
 Lights Internal Gains, FRONT_ENTRY_LIGHTS,BLDG_LIGHT_SCH,FRONT_ENTRY,12.00,1.9,142.080,11.840,73.290,0.000,0.700,0.200,0.100,1.000,General,0.000,142.080
 Lights Internal Gains, FRONT_RETAIL_LIGHTS,BLDG_LIGHT_SCH,FRONT_RETAIL,150.81,24.4,2758.315,18.290,113.215,0.000,0.700,0.200,0.100,1.000,General,0.000,2758.315
 Lights Internal Gains, POINT_OF_SALE_LIGHTS,BLDG_LIGHT_SCH,POINT_OF_SALE,150.81,24.4,2758.315,18.290,113.215,0.000,0.700,0.200,0.100,1.000,General,0.000,2758.315
! <ElectricEquipment Internal Gains - Nominal>,Name,Schedule Name,Zone Name,Zone Floor Area {m2},# Zone Occupants,Equipment Level {W},Equipment/Floor Area {W/m2},Equipment per person {W/person},Fraction Latent,Fraction Radiant,Fraction Lost,Fraction Convected,End-Use SubCategory,Nominal Minimum Equipment Level {W},Nominal Maximum Equipment Level {W}
 ElectricEquipment Internal Gains, BACK_SPACE_MISCPLUG_EQUIP,BLDG_EQUIP_SCH,BACK_SPACE,379.89,13.6,3065.712,8.070,224.911,0.000,0.500,0.000,0.500,MiscPlug,0.000,3065.712
 ElectricEquipment Internal Gains, CORE_RETAIL_MISCPLUG_EQUIP,BLDG_EQUIP_SCH,CORE_RETAIL,1600.48,258.6,5169.560,3.230,19.994,0.000,0.500,0.000,0.500,MiscPlug,0.000,5169.560
 ElectricEquipment Internal Gains, FRONT_RETAIL_MISCPLUG_EQUIP,BLDG_EQUIP_SCH,FRONT_RETAIL,150.81,24.4,487.116,3.230,19.994,0.000,0.500,0.000,0.500,MiscPlug,0.000,487.116
 ElectricEquipment Internal Gains, POINT_OF_SALE_MISCPLUG_EQUIP,BLDG_EQUIP_SCH,POINT_OF_SALE,150.81,24.4,3245.431,21.520,133.209,0.000,0.500,0.000,0.500,MiscPlug,0.000,3245.431
! <OtherEquipment Internal Gains - Nominal>,Name,Schedule Name,Zone Name,Zone Floor Area {m2},# Zone Occupants,Equipment Level {W},Equipment/Floor Area {W/m2},Equipment per person {W/person},Fraction Latent,Fraction Radiant,Fraction Lost,Fraction Convected,Nominal Minimum Equipment Level {W},Nominal Maximum Equipment Level {W}
 OtherEquipment Internal Gains, OTHEQ 1,REFRIDSCH,POINT_OF_SALE,150.81,24.4,10000.000,66.309,410.450,0.000,0.000,0.000,1.000,-7000.000,-7000.000
! <Shadowing/Sun Position Calculations> [Annual Simulations], Calculation Method,Value {days}, Allowable Number Figures in Shadow Overlap {}, Polygon Clipping Algorithm, Sky Diffuse Modeling Algorithm
Shadowing/Sun Position Calculations,AverageOverDaysInFrequency,7,15000,SutherlandHodgman,SimpleSkyDiffuseModeling
! <Infiltration Airflow Stats - Nominal>,Name,Schedule Name,Zone Name, Zone Floor Area {m2}, # Zone Occupants,Design Volume Flow Rate {m3/s},Volume Flow Rate/Floor Area {m3/s/m2},Volume Flow Rate/Exterior Surface Area {m3/s/m2},ACH - Air Changes per Hour,Equation A - Constant Term Coefficient {},Equation B - Temperature Term Coefficient {1/C},Equation C - Velocity Term Coefficient {s/m}, Equation D - Velocity Squared Term Coefficient {s2/m2}
 ZoneInfiltration Airflow Stats, BACK_SPACE_INFILTRATION,INFIL_HALF_ON_SCH,BACK_SPACE,379.89,13.6,0.240,6.328E-004,3.020E-004,0.374,1.000,0.000,0.000,0.000
 ZoneInfiltration Airflow Stats, CORE_RETAIL_INFILTRATION,INFIL_HALF_ON_SCH,CORE_RETAIL,1600.48,258.6,0.591,3.693E-004,3.020E-004,0.218,1.000,0.000,0.000,0.000
 ZoneInfiltration Airflow Stats, FRONT_ENTRY_INFILTRATION,INFIL_FRONT_SCH,FRONT_ENTRY,12.00,1.9,2.032E-002,1.693E-003,5.585E-004,1.000,1.000,0.000,0.000,0.000
 ZoneInfiltration Airflow Stats, FRONT_RETAIL_INFILTRATION,INFIL_HALF_ON_SCH,FRONT_RETAIL,150.81,24.4,0.103,6.821E-004,3.020E-004,0.403,1.000,0.000,0.000,0.000
 ZoneInfiltration Airflow Stats, POINT_OF_SALE_INFILTRATION,INFIL_HALF_ON_SCH,POINT_OF_SALE,150.81,24.4,0.103,6.821E-004,3.020E-004,0.403,1.000,0.000,0.000,0.000
! <AirFlow Model>, Simple
 AirFlow Model, Simple
! <RoomAir Model>, Zone Name, Mixing/Mundt/UCSDDV/UCSDCV/UCSDUFI/UCSDUFE/User Defined
RoomAir Model,BACK_SPACE,Mixing/Well-Stirred
RoomAir Model,CORE_RETAIL,Mixing/Well-Stirred
RoomAir Model,FRONT_ENTRY,Mixing/Well-Stirred
RoomAir Model,FRONT_RETAIL,Mixing/Well-Stirred
RoomAir Model,POINT_OF_SALE,Mixing/Well-Stirred
! <AirflowNetwork Model:Control>, No Multizone or Distribution/Multizone with Distribution/Multizone without Distribution/Multizone with Distribution only during Fan Operation
AirflowNetwork Model:Control,NoMultizoneOrDistribution
! <Zone Volume Capacitance Multiplier>, Sensible Heat Capacity Multiplier, Moisture Capacity Multiplier, Carbon Dioxide Capacity Multiplier, Generic Contaminant Capacity Multiplier
Zone Volume Capacitance Multiplier,   1.000 ,   1.000,   1.000,   1.000
! <Load Timesteps in Zone Design Calculation Averaging Window>, Value
 Load Timesteps in Zone Design Calculation Averaging Window,    6
! <Heating Sizing Factor Information>, Sizing Factor ID, Value
 Heating Sizing Factor Information, Global,   1.2000    
 Heating Sizing Factor Information, Zone BACK_SPACE,   1.2000    
 Heating Sizing Factor Information, Zone CORE_RETAIL,   1.2000    
 Heating Sizing Factor Information, Zone FRONT_ENTRY,   1.2000    
 Heating Sizing Factor Information, Zone FRONT_RETAIL,   1.2000    
 Heating Sizing Factor Information, Zone POINT_OF_SALE,   1.2000    
! <Cooling Sizing Factor Information>, Sizing Factor ID, Value
 Cooling Sizing Factor Information, Global,   1.2000    
 Cooling Sizing Factor Information, Zone BACK_SPACE,   1.2000    
 Cooling Sizing Factor Information, Zone CORE_RETAIL,   1.2000    
 Cooling Sizing Factor Information, Zone FRONT_ENTRY,   1.2000    
 Cooling Sizing Factor Information, Zone FRONT_RETAIL,   1.2000    
 Cooling Sizing Factor Information, Zone POINT_OF_SALE,   1.2000    
! <Zone Sizing Information>, Zone Name, Load Type, Calc Des Load {W}, User Des Load {W}, Calc Des Air Flow Rate {m3/s}, User Des Air Flow Rate {m3/s}, Design Day Name, Date/Time of Peak, Temperature at Peak {C}, Humidity Ratio at Peak {kgWater/kgDryAir}, Floor Area {m2}, # Occupants, Calc Outdoor Air Flow Rate {m3/s}
 Zone Sizing Information, BACK_SPACE, Cooling, 10156.45685, 12187.74822, 0.79458, 0.95349, CHICAGO ANN CLG .4% CONDNS WB=>MDB, 7/21 06:30:00, 21.08850, 1.61111E-002, 379.89000, 13.63079, 0.28492
 Zone Sizing Information, BACK_SPACE, Heating, 27260.70093, 32712.84112, 1.19623, 1.43548, CHICAGO ANN HTG 99.6% CONDNS DB, 1/21 24:00:00, -20.60000, 6.12575E-004, 379.89000, 13.63079, 0.28492
 Zone Sizing Information, CORE_RETAIL, Cooling, 62116.35647, 74539.62776, 4.64599, 5.57518, CHICAGO ANN CLG .4% CONDNS WB=>MDB, 7/21 06:30:00, 21.08850, 1.61111E-002, 1600.48290, 258.55943, 2.40072
 Zone Sizing Information, CORE_RETAIL, Heating, 48026.83419, 57632.20103, 2.10794, 2.52953, CHICAGO ANN HTG 99.6% CONDNS DB, 1/21 00:30:00, -20.60000, 6.12575E-004, 1600.48290, 258.55943, 2.40072
 Zone Sizing Information, FRONT_ENTRY, Heating, 2200.14161, 2640.16993, 9.65166E-002, 0.11582, CHICAGO ANN HTG 99.6% CONDNS DB, 1/21 24:00:00, -20.60000, 6.12575E-004, 12.00000, 1.93861, 0.00000
 Zone Sizing Information, FRONT_RETAIL, Cooling, 6711.19376, 8053.43251, 0.51892, 0.62271, CHICAGO ANN CLG .4% CONDNS WB=>MDB, 7/21 06:30:00, 21.08850, 1.61111E-002, 150.81000, 24.36349, 0.22622
 Zone Sizing Information, FRONT_RETAIL, Heating, 12674.51097, 15209.41317, 0.55621, 0.66745, CHICAGO ANN HTG 99.6% CONDNS DB, 1/21 24:00:00, -20.60000, 6.12575E-004, 150.81000, 24.36349, 0.22622
 Zone Sizing Information, POINT_OF_SALE, Cooling, 1074.21537, 1289.05845, 8.95408E-002, 0.22622, CHICAGO ANN CLG .4% CONDNS WB=>MDB, 7/21 15:55:00, 30.61150, 1.87829E-002, 150.81000, 24.36349, 0.22622
 Zone Sizing Information, POINT_OF_SALE, Heating, 19675.62843, 23610.75412, 0.86344, 1.03612, CHICAGO ANN HTG 99.6% CONDNS DB, 1/21 24:00:00, -20.60000, 6.12575E-004, 150.81000, 24.36349, 0.22622
! <System Sizing Information>, System Name, Field Description, Value
 System Sizing Information, PSZ-AC:1, Calculated Cooling Design Air Flow Rate [m3/s], 0.95349
 System Sizing Information, PSZ-AC:1, User Cooling Design Air Flow Rate [m3/s], 0.95349
 System Sizing Information, PSZ-AC:1, Calculated Heating Design Air Flow Rate [m3/s], 1.43548
 System Sizing Information, PSZ-AC:1, User Heating Design Air Flow Rate [m3/s], 1.43548
 System Sizing Information, PSZ-AC:2, Calculated Cooling Design Air Flow Rate [m3/s], 5.57518
 System Sizing Information, PSZ-AC:2, User Cooling Design Air Flow Rate [m3/s], 5.57518
 System Sizing Information, PSZ-AC:2, Calculated Heating Design Air Flow Rate [m3/s], 2.52953
 System Sizing Information, PSZ-AC:2, User Heating Design Air Flow Rate [m3/s], 2.52953
 System Sizing Information, PSZ-AC:3, Calculated Cooling Design Air Flow Rate [m3/s], 0.22622
 System Sizing Information, PSZ-AC:3, User Cooling Design Air Flow Rate [m3/s], 0.22622
 System Sizing Information, PSZ-AC:3, Calculated Heating Design Air Flow Rate [m3/s], 1.03612
 System Sizing Information, PSZ-AC:3, User Heating Design Air Flow Rate [m3/s], 1.03612
 System Sizing Information, PSZ-AC:4, Calculated Cooling Design Air Flow Rate [m3/s], 0.62271
 System Sizing Information, PSZ-AC:4, User Cooling Design Air Flow Rate [m3/s], 0.62271
 System Sizing Information, PSZ-AC:4, Calculated Heating Design Air Flow Rate [m3/s], 0.66745
 System Sizing Information, PSZ-AC:4, User Heating Design Air Flow Rate [m3/s], 0.66745
! <Component Sizing Information>, Component Type, Component Name, Input Field Description, Value
 Component Sizing Information, AirTerminal:SingleDuct:Uncontrolled, BACK_SPACE DIRECT AIR, Design Size Maximum Air Flow Rate [m3/s], 1.43548
 Component Sizing Information, AirTerminal:SingleDuct:Uncontrolled, CORE_RETAIL DIRECT AIR, Design Size Maximum Air Flow Rate [m3/s], 5.57518
 Component Sizing Information, ZoneHVAC:UnitHeater, FRONT_ENTRY UNIT HEATER, Design Size Maximum Supply Air Flow Rate [m3/s], 0.11582
 Component Sizing Information, Fan:ConstantVolume, FRONT_ENTRY UNIT HEATERFAN, Design Size Maximum Flow Rate [m3/s], 0.11582
 Component Sizing Information, Coil:Heating:Electric, FRONT_ENTRY UNIT HEATER COIL, Design Size Nominal Capacity [W], 2640.16993
 Component Sizing Information, AirTerminal:SingleDuct:Uncontrolled, FRONT_RETAIL DIRECT AIR, Design Size Maximum Air Flow Rate [m3/s], 0.66745
 Component Sizing Information, AirTerminal:SingleDuct:Uncontrolled, POINT_OF_SALE DIRECT AIR, Design Size Maximum Air Flow Rate [m3/s], 1.03612
 Component Sizing Information, Branch, PSZ-AC:1 AIR LOOP MAIN BRANCH, Maximum Flow Rate [m3/s], 1.43548
 Component Sizing Information, AirLoopHVAC, PSZ-AC:1, Design Supply Air Flow Rate [m3/s], 1.43548
 Component Sizing Information, Branch, PSZ-AC:2 AIR LOOP MAIN BRANCH, Maximum Flow Rate [m3/s], 5.57518
 Component Sizing Information, AirLoopHVAC, PSZ-AC:2, Design Supply Air Flow Rate [m3/s], 5.57518
 Component Sizing Information, Branch, PSZ-AC:3 AIR LOOP MAIN BRANCH, Maximum Flow Rate [m3/s], 1.03612
 Component Sizing Information, AirLoopHVAC, PSZ-AC:3, Design Supply Air Flow Rate [m3/s], 1.03612
 Component Sizing Information, Branch, PSZ-AC:4 AIR LOOP MAIN BRANCH, Maximum Flow Rate [m3/s], 0.66745
 Component Sizing Information, AirLoopHVAC, PSZ-AC:4, Design Supply Air Flow Rate [m3/s], 0.66745
 Component Sizing Information, Controller:OutdoorAir, PSZ-AC:1_OA_CONTROLLER, Maximum Outdoor Air Flow Rate [m3/s], 1.43548
 Component Sizing Information, Controller:OutdoorAir, PSZ-AC:1_OA_CONTROLLER, Minimum Outdoor Air Flow Rate [m3/s], 0.28492
 Component Sizing Information, Coil:Cooling:DX:SingleSpeed, PSZ-AC:1_UNITARY_PACKAGE_COOLCOIL, Design Size Rated Air Flow Rate [m3/s], 1.43548
 Component Sizing Information, Coil:Cooling:DX:SingleSpeed, PSZ-AC:1_UNITARY_PACKAGE_COOLCOIL, Design Size Rated Total Cooling Capacity (gross) [W], 35646.30534
 Component Sizing Information, Coil:Cooling:DX:SingleSpeed, PSZ-AC:1_UNITARY_PACKAGE_COOLCOIL, Design Size Rated Sensible Heat Ratio, 0.67608
! <DX Cooling Coil Standard Rating Information>, Component Type, Component Name, Standard Rating (Net) Cooling Capacity {W}, Standard Rated Net COP {W/W}, EER {Btu/W-h}, SEER {Btu/W-h}, IEER {Btu/W-h}
 DX Cooling Coil Standard Rating Information, Coil:Cooling:DX:SingleSpeed, PSZ-AC:1_UNITARY_PACKAGE_COOLCOIL, 34532.6, 3.06, 10.43, 12.03, 11.72
 Component Sizing Information, AirLoopHVAC:UnitaryHeatCool, PSZ-AC:1_UNITARY_PACKAGE, Supply Air Flow Rate [m3/s], 1.43548
 Component Sizing Information, AirLoopHVAC:UnitaryHeatCool, PSZ-AC:1_UNITARY_PACKAGE, Supply Air Flow Rate During Heating Operation [m3/s], 1.43548
 Component Sizing Information, AirLoopHVAC:UnitaryHeatCool, PSZ-AC:1_UNITARY_PACKAGE, Supply Air Flow Rate During Cooling Operation [m3/s], 1.43548
 Component Sizing Information, AirLoopHVAC:UnitaryHeatCool, PSZ-AC:1_UNITARY_PACKAGE, Supply Air Flow Rate When No Cooling or Heating is Needed [m3/s], 1.43548
 Component Sizing Information, AirLoopHVAC:UnitaryHeatCool, PSZ-AC:1_UNITARY_PACKAGE, Nominal Heating Capacity [W], 46239.45561
 Component Sizing Information, AirLoopHVAC:UnitaryHeatCool, PSZ-AC:1_UNITARY_PACKAGE, Nominal Cooling Capacity [W], 35646.30534
 Component Sizing Information, AirLoopHVAC:UnitaryHeatCool, PSZ-AC:1_UNITARY_PACKAGE, Maximum Supply Air Temperature from Supplemental Heater [C], 40.00000
 Component Sizing Information, AirLoopHVAC:UnitaryHeatCool, PSZ-AC:1_UNITARY_PACKAGE, Fraction of Supply Air Flow That Goes Through the Controlling Zone, 1.00000
 Component Sizing Information, Fan:OnOff, PSZ-AC:1_UNITARY_PACKAGE_FAN, Design Size Maximum Flow Rate [m3/s], 1.43548
 Component Sizing Information, Coil:Heating:Gas, PSZ-AC:1_UNITARY_PACKAGE_HEATCOIL, Design Size Nominal Capacity [W], 46239.45561
 Component Sizing Information, Controller:OutdoorAir, PSZ-AC:2_OA_CONTROLLER, Maximum Outdoor Air Flow Rate [m3/s], 5.57518
 Component Sizing Information, Controller:OutdoorAir, PSZ-AC:2_OA_CONTROLLER, Minimum Outdoor Air Flow Rate [m3/s], 2.40072
 Component Sizing Information, Coil:Cooling:DX:SingleSpeed, PSZ-AC:2_UNITARY_PACKAGE_COOLCOIL, Design Size Rated Air Flow Rate [m3/s], 5.57518
 Component Sizing Information, Coil:Cooling:DX:SingleSpeed, PSZ-AC:2_UNITARY_PACKAGE_COOLCOIL, Design Size Rated Total Cooling Capacity (gross) [W], 138445.04948
 Component Sizing Information, Coil:Cooling:DX:SingleSpeed, PSZ-AC:2_UNITARY_PACKAGE_COOLCOIL, Design Size Rated Sensible Heat Ratio, 0.67608
 DX Cooling Coil Standard Rating Information, Coil:Cooling:DX:SingleSpeed, PSZ-AC:2_UNITARY_PACKAGE_COOLCOIL, 134120.3, 2.84, 9.71, 11.93, 11.06
 Component Sizing Information, AirLoopHVAC:UnitaryHeatCool, PSZ-AC:2_UNITARY_PACKAGE, Supply Air Flow Rate [m3/s], 5.57518
 Component Sizing Information, AirLoopHVAC:UnitaryHeatCool, PSZ-AC:2_UNITARY_PACKAGE, Supply Air Flow Rate During Heating Operation [m3/s], 5.57518
 Component Sizing Information, AirLoopHVAC:UnitaryHeatCool, PSZ-AC:2_UNITARY_PACKAGE, Supply Air Flow Rate During Cooling Operation [m3/s], 5.57518
 Component Sizing Information, AirLoopHVAC:UnitaryHeatCool, PSZ-AC:2_UNITARY_PACKAGE, Supply Air Flow Rate When No Cooling or Heating is Needed [m3/s], 5.57518
 Component Sizing Information, AirLoopHVAC:UnitaryHeatCool, PSZ-AC:2_UNITARY_PACKAGE, Nominal Heating Capacity [W], 174795.44893
 Component Sizing Information, AirLoopHVAC:UnitaryHeatCool, PSZ-AC:2_UNITARY_PACKAGE, Nominal Cooling Capacity [W], 138445.04948
 Component Sizing Information, AirLoopHVAC:UnitaryHeatCool, PSZ-AC:2_UNITARY_PACKAGE, Maximum Supply Air Temperature from Supplemental Heater [C], 40.00000
 Component Sizing Information, AirLoopHVAC:UnitaryHeatCool, PSZ-AC:2_UNITARY_PACKAGE, Fraction of Supply Air Flow That Goes Through the Controlling Zone, 1.00000
 Component Sizing Information, Fan:OnOff, PSZ-AC:2_UNITARY_PACKAGE_FAN, Design Size Maximum Flow Rate [m3/s], 5.57518
 Component Sizing Information, Coil:Heating:Gas, PSZ-AC:2_UNITARY_PACKAGE_HEATCOIL, Design Size Nominal Capacity [W], 174795.44893
 Component Sizing Information, Controller:OutdoorAir, PSZ-AC:3_OA_CONTROLLER, Maximum Outdoor Air Flow Rate [m3/s], 1.03612
 Component Sizing Information, Controller:OutdoorAir, PSZ-AC:3_OA_CONTROLLER, Minimum Outdoor Air Flow Rate [m3/s], 0.22622
 Component Sizing Information, Coil:Cooling:DX:SingleSpeed, PSZ-AC:3_UNITARY_PACKAGE_COOLCOIL, Design Size Rated Air Flow Rate [m3/s], 1.03612
 Component Sizing Information, Coil:Cooling:DX:SingleSpeed, PSZ-AC:3_UNITARY_PACKAGE_COOLCOIL, Design Size Rated Total Cooling Capacity (gross) [W], 25729.44448
 Component Sizing Information, Coil:Cooling:DX:SingleSpeed, PSZ-AC:3_UNITARY_PACKAGE_COOLCOIL, Design Size Rated Sensible Heat Ratio, 0.67608
 DX Cooling Coil Standard Rating Information, Coil:Cooling:DX:SingleSpeed, PSZ-AC:3_UNITARY_PACKAGE_COOLCOIL, 24925.6, 3.19, 10.88, 12.53, 12.16
 Component Sizing Information, AirLoopHVAC:UnitaryHeatCool, PSZ-AC:3_UNITARY_PACKAGE, Supply Air Flow Rate [m3/s], 1.03612
 Component Sizing Information, AirLoopHVAC:UnitaryHeatCool, PSZ-AC:3_UNITARY_PACKAGE, Supply Air Flow Rate During Heating Operation [m3/s], 1.03612
 Component Sizing Information, AirLoopHVAC:UnitaryHeatCool, PSZ-AC:3_UNITARY_PACKAGE, Supply Air Flow Rate During Cooling Operation [m3/s], 1.03612
 Component Sizing Information, AirLoopHVAC:UnitaryHeatCool, PSZ-AC:3_UNITARY_PACKAGE, Supply Air Flow Rate When No Cooling or Heating is Needed [m3/s], 1.03612
 Component Sizing Information, AirLoopHVAC:UnitaryHeatCool, PSZ-AC:3_UNITARY_PACKAGE, Nominal Heating Capacity [W], 34385.12624
 Component Sizing Information, AirLoopHVAC:UnitaryHeatCool, PSZ-AC:3_UNITARY_PACKAGE, Nominal Cooling Capacity [W], 25729.44448
 Component Sizing Information, AirLoopHVAC:UnitaryHeatCool, PSZ-AC:3_UNITARY_PACKAGE, Maximum Supply Air Temperature from Supplemental Heater [C], 40.00000
 Component Sizing Information, AirLoopHVAC:UnitaryHeatCool, PSZ-AC:3_UNITARY_PACKAGE, Fraction of Supply Air Flow That Goes Through the Controlling Zone, 1.00000
 Component Sizing Information, Fan:OnOff, PSZ-AC:3_UNITARY_PACKAGE_FAN, Design Size Maximum Flow Rate [m3/s], 1.03612
 Component Sizing Information, Coil:Heating:Gas, PSZ-AC:3_UNITARY_PACKAGE_HEATCOIL, Design Size Nominal Capacity [W], 34385.12624
 Component Sizing Information, Controller:OutdoorAir, PSZ-AC:4_OA_CONTROLLER, Maximum Outdoor Air Flow Rate [m3/s], 0.66745
 Component Sizing Information, Controller:OutdoorAir, PSZ-AC:4_OA_CONTROLLER, Minimum Outdoor Air Flow Rate [m3/s], 0.22622
 Component Sizing Information, Coil:Cooling:DX:SingleSpeed, PSZ-AC:4_UNITARY_PACKAGE_COOLCOIL, Design Size Rated Air Flow Rate [m3/s], 0.66745
 Component Sizing Information, Coil:Cooling:DX:SingleSpeed, PSZ-AC:4_UNITARY_PACKAGE_COOLCOIL, Design Size Rated Total Cooling Capacity (gross) [W], 16574.46164
 Component Sizing Information, Coil:Cooling:DX:SingleSpeed, PSZ-AC:4_UNITARY_PACKAGE_COOLCOIL, Design Size Rated Sensible Heat Ratio, 0.67608
 DX Cooling Coil Standard Rating Information, Coil:Cooling:DX:SingleSpeed, PSZ-AC:4_UNITARY_PACKAGE_COOLCOIL, 16056.6, 3.19, 10.88, 12.53, 12.16
 Component Sizing Information, AirLoopHVAC:UnitaryHeatCool, PSZ-AC:4_UNITARY_PACKAGE, Supply Air Flow Rate [m3/s], 0.66745
 Component Sizing Information, AirLoopHVAC:UnitaryHeatCool, PSZ-AC:4_UNITARY_PACKAGE, Supply Air Flow Rate During Heating Operation [m3/s], 0.66745
 Component Sizing Information, AirLoopHVAC:UnitaryHeatCool, PSZ-AC:4_UNITARY_PACKAGE, Supply Air Flow Rate During Cooling Operation [m3/s], 0.66745
 Component Sizing Information, AirLoopHVAC:UnitaryHeatCool, PSZ-AC:4_UNITARY_PACKAGE, Supply Air Flow Rate When No Cooling or Heating is Needed [m3/s], 0.66745
 Component Sizing Information, AirLoopHVAC:UnitaryHeatCool, PSZ-AC:4_UNITARY_PACKAGE, Nominal Heating Capacity [W], 26106.23344
 Component Sizing Information, AirLoopHVAC:UnitaryHeatCool, PSZ-AC:4_UNITARY_PACKAGE, Nominal Cooling Capacity [W], 16574.46164
 Component Sizing Information, AirLoopHVAC:UnitaryHeatCool, PSZ-AC:4_UNITARY_PACKAGE, Maximum Supply Air Temperature from Supplemental Heater [C], 40.00000
 Component Sizing Information, AirLoopHVAC:UnitaryHeatCool, PSZ-AC:4_UNITARY_PACKAGE, Fraction of Supply Air Flow That Goes Through the Controlling Zone, 1.00000
 Component Sizing Information, Fan:OnOff, PSZ-AC:4_UNITARY_PACKAGE_FAN, Design Size Maximum Flow Rate [m3/s], 0.66745
 Component Sizing Information, Coil:Heating:Gas, PSZ-AC:4_UNITARY_PACKAGE_HEATCOIL, Design Size Nominal Capacity [W], 26106.23344
! <Environment>,Environment Name,Environment Type, Start Date, End Date, Start DayOfWeek, Duration {#days}, Source:Start DayOfWeek,  Use Daylight Saving, Use Holidays, Apply Weekend Holiday Rule,  Use Rain Values, Use Snow Values
! <Environment:Special Days>, Special Day Name, Special Day Type, Source, Start Date, Duration {#days}
! <Environment:Daylight Saving>, Daylight Saving Indicator, Source, Start Date, End Date
! <Environment:WarmupDays>, NumberofWarmupDays
Environment,RUNPERIOD 1,WeatherFileRunPeriod,07/14,07/14,Monday,1,Use RunPeriod Specified Day,No ,No ,No ,Yes,Yes
Environment:Daylight Saving,Yes,InputFile,03/09,11/02
Environment:Special Days,NEW YEARS DAY,Holiday,InputFile,01/01,  1
Environment:Special Days,VETERANS DAY,Holiday,InputFile,11/11,  1
Environment:Special Days,CHRISTMAS,Holiday,InputFile,12/25,  1
Environment:Special Days,INDEPENDENCE DAY,Holiday,InputFile,07/04,  1
Environment:Special Days,MLK DAY,Holiday,InputFile,01/20,  1
Environment:Special Days,PRESIDENTS DAY,Holiday,InputFile,02/17,  1
Environment:Special Days,MEMORIAL DAY,Holiday,InputFile,05/26,  1
Environment:Special Days,LABOR DAY,Holiday,InputFile,09/01,  1
Environment:Special Days,COLUMBUS DAY,Holiday,InputFile,10/13,  1
Environment:Special Days,THANKSGIVING,Holiday,InputFile,11/27,  1
Environment:WarmupDays,  6
! <Warmup Convergence Information>,Zone Name,Environment Type/Name,Average Warmup Temperature Difference {deltaC},Std Dev Warmup Temperature Difference {deltaC},Max Temperature Pass/Fail Convergence,Min Temperature Pass/Fail Convergence,Average Warmup Load Difference {W},Std Dev Warmup Load Difference {W},Heating Load Pass/Fail Convergence,Cooling Load Pass/Fail Convergence
 Warmup Convergence Information,BACK_SPACE,RunPeriod: RUNPERIOD 1,1.1047398860E-002,1.6864743916E-002,Pass,Pass,4.9885858949E-002,0.4182642265,Pass,Pass
 Warmup Convergence Information,CORE_RETAIL,RunPeriod: RUNPERIOD 1,1.7550110114E-002,3.1589573778E-002,Pass,Pass,2.2672198827E-002,7.5507842365E-002,Pass,Pass
 Warmup Convergence Information,FRONT_ENTRY,RunPeriod: RUNPERIOD 1,3.4407281079E-002,2.2797664676E-002,Pass,Pass,0.0000000000,0.0000000000,Pass,Pass
 Warmup Convergence Information,FRONT_RETAIL,RunPeriod: RUNPERIOD 1,1.3904095638E-002,2.2819439217E-002,Pass,Pass,0.3059500006,4.1340167978,Pass,Pass
 Warmup Convergence Information,POINT_OF_SALE,RunPeriod: RUNPERIOD 1,6.4271728608E-002,0.2731875447,Pass,Pass,1.9202371632E-002,0.1108566885,Pass,Pass
! <Program Control Information:Threads/Parallel Sims>, Threading Supported,Maximum Number of Threads, Env Set Threads (OMP_NUM_THREADS), EP Env Set Threads (EP_OMP_NUM_THREADS), IDF Set Threads, Number of Threads Used (Interior Radiant Exchange), Number Nominal Surfaces, Number Parallel Sims
Program Control:Threads/Parallel Sims, No,1, N/A, N/A, N/A, N/A, N/A, N/A
End of Data
